$-------2-------3-------4-------5-------6-------7-------8-------9-------10
$ Node definition                                                         
$-------2-------3-------4-------5-------6-------7-------8-------9-------10
GRID        5001       0 24.3733 0.60330-1.64490       0                
GRID        5002       0 24.3733 1.20661-1.64490       0                
GRID        5003       0 24.5424 1.93114-1.48560       0                
GRID        5004       0 24.7116 2.65568-1.32630       0                
GRID        5005       0 24.8808 3.38021-1.16700       0                
GRID        5006       0 25.0500 4.10474-1.00770       0                
GRID        5007       0 25.2192 4.82928-0.84840       0                
GRID        5008       0 25.3884 5.55381-0.68910       0                
GRID        5009       0 25.5575 6.27834-0.52980       0                
GRID        5010       0 25.7267 7.00288-0.37050       0                
GRID        5011       0 25.8959 7.72741-0.21120       0                
GRID        5012       0 26.0651 8.45195-0.05190       0                
GRID        5013       0 26.2389 9.21775 0.11646       0                
GRID        5014       0 26.4128 9.98355 0.28484       0                
GRID        5015       0 26.5866 10.7493 0.45321       0                
GRID        5016       0 26.7604 11.5151 0.62158       0                
GRID        5017       0 26.9342 12.2809 0.78995       0                
GRID        5018       0 27.1081 13.0467 0.95832       0                
GRID        5019       0 27.2819 13.8125 1.12669       0                
GRID        5020       0 27.4557 14.5783 1.29507       0                
$ ... 4 like lines cut
$ GRID        5024       0 24.3733-0.60330-1.64490       0                
$ GRID        5025       0 24.3733-1.20661-1.64490       0                
$ GRID        5026       0 24.5424-1.93114-1.48560       0                
$ GRID        5027       0 24.7116-2.65568-1.32630       0                
$ GRID        5028       0 24.8808-3.38021-1.16700       0                
$ GRID        5029       0 25.0500-4.10474-1.00770       0                
$ GRID        5030       0 25.2192-4.82928-0.84840       0                
$ GRID        5031       0 25.3884-5.55381-0.68910       0                
$ GRID        5032       0 25.5575-6.27834-0.52980       0                
$ GRID        5033       0 25.7267-7.00288-0.37050       0                
$ GRID        5034       0 25.8959-7.72741-0.21120       0                
$ GRID        5035       0 26.0651-8.45195-0.05190       0                
$ GRID        5036       0 26.2389-9.21775 0.11646       0                
$ GRID        5037       0 26.4128-9.98355 0.28484       0                
$ GRID        5038       0 26.5866-10.7493 0.45321       0                
$ GRID        5039       0 26.7604-11.5151 0.62158       0                
$ GRID        5040       0 26.9342-12.2809 0.78995       0                
$ GRID        5041       0 27.1081-13.0467 0.95832       0                
$ GRID        5042       0 27.2819-13.8125 1.12669       0                
$ GRID        5043       0 27.4557-14.5783 1.29507       0                
$ GRID        5044       0 27.6296-15.3441 1.46344       0                
$ GRID        5045       0 27.8034-16.1099 1.63181       0                
$ GRID        5046       0 28.0042-17.2724 2.17157       0                
GRID       50000       0 24.2095      0.-1.64490       0                
GRID       50001       0 24.3733      0.-1.68975       0                
GRID       50002       0 24.5370      0.-1.64490       0                
GRID       50003       0 24.3733      0.-1.60005       0                
GRID       50004       0 24.2138 0.60330-1.64490       0                
GRID       50005       0 24.3733 0.60330-1.68975       0                
GRID       50006       0 24.5327 0.60330-1.64490       0                
GRID       50007       0 24.3733 0.60330-1.60005       0                
GRID       50008       0 24.2138 1.20661-1.64490       0                
GRID       50009       0 24.3733 1.20661-1.68975       0                
GRID       50010       0 24.5327 1.20661-1.64490       0                
GRID       50011       0 24.3733 1.20661-1.60005       0                
GRID       50012       0 24.3850 1.96621-1.47789       0                
GRID       50013       0 24.5424 1.94090-1.52998       0                
GRID       50014       0 24.6999 1.89607-1.49331       0                
GRID       50015       0 24.5424 1.92138-1.44122       0                
GRID       50016       0 24.5522 2.69119-1.31849       0                
GRID       50017       0 24.7116 2.66556-1.37126       0                
GRID       50018       0 24.8711 2.62016-1.33411       0                
GRID       50019       0 24.7116 2.64579-1.28134       0                
$ ... 76 like lines cut
$ GRID       50100       0 24.2138-0.60330-1.64490       0                
$ GRID       50101       0 24.3733-0.60330-1.68975       0                
$ GRID       50102       0 24.5327-0.60330-1.64490       0                
$ GRID       50103       0 24.3733-0.60330-1.60005       0                
$ GRID       50104       0 24.2138-1.20661-1.64490       0                
$ GRID       50105       0 24.3733-1.20661-1.68975       0                
$ GRID       50106       0 24.5327-1.20661-1.64490       0                
$ GRID       50107       0 24.3733-1.20661-1.60005       0                
$ GRID       50108       0 24.3850-1.96621-1.47789       0                
$ GRID       50109       0 24.5424-1.94090-1.52998       0                
$ GRID       50110       0 24.6999-1.89607-1.49331       0                
$ GRID       50111       0 24.5424-1.92138-1.44122       0                
$ GRID       50112       0 24.5522-2.69119-1.31849       0                
$ GRID       50113       0 24.7116-2.66556-1.37126       0                
$ GRID       50114       0 24.8711-2.62016-1.33411       0                
$ GRID       50115       0 24.7116-2.64579-1.28134       0                
$ GRID       50116       0 24.7194-3.41617-1.15910       0                
$ GRID       50117       0 24.8808-3.39022-1.21254       0                
$ GRID       50118       0 25.0423-3.34425-1.17491       0                
$ GRID       50119       0 24.8808-3.37020-1.12147       0                
$ ... 72 like lines cut
$
$-------2-------3-------4-------5-------6-------7-------8-------9-------10
$ Material properties                                                     
$-------2-------3-------4-------5-------6-------7-------8-------9-------10
MAT1         500 7.37e10 2.83e10 0.30000 2795.72
$
$-------2-------3-------4-------5-------6-------7-------8-------9-------10
$ Bar properties
$-------2-------3-------4-------5-------6-------7-------8-------9-------10
PBAR        5000     500 7.33e-3 9.91e-6 7.08e-5 2.34e-5 0.24981
              0. 0.15945 0.04485      0.      0.-0.15944-0.04484      0.
PBAR        5001     500 7.33e-3 9.91e-6 7.08e-5 2.34e-5 0.24981
              0. 0.15945 0.04485      0.      0.-0.15944-0.04484      0.
PBAR        5002     500 6.78e-3 9.37e-6 6.69e-5 2.23e-5 0.19890
              0. 0.16047 0.04514      0.      0.-0.16047-0.04514      0.
PBAR        5003     500 5.52e-3 7.81e-6 5.65e-5 1.86e-5 0.20153
              0. 0.16252 0.04574      0.      0.-0.16251-0.04573      0.
PBAR        5004     500 4.18e-3 5.96e-6 4.38e-5 1.41e-5 0.20415
              0. 0.16456 0.04633      0.      0.-0.16456-0.04632      0.
PBAR        5005     500 3.58e-3 4.32e-6 3.47e-5 8.05e-6 0.20677
              0. 0.16661 0.04692      0.      0.-0.16661-0.04692      0.
PBAR        5006     500 3.57e-3 4.27e-6 3.51e-5 7.45e-6 0.20938
              0. 0.16866 0.04751      0.      0.-0.16865-0.04751      0.
PBAR        5007     500   4.e-3 5.93e-6 4.44e-5 1.33e-5 0.21200
              0. 0.17070 0.04811      0.      0.-0.17070-0.04810      0.
PBAR        5008     500 4.52e-3 7.27e-6 5.32e-5 1.73e-5 0.21462
              0. 0.17275 0.04870      0.      0.-0.17274-0.04869      0.
PBAR        5009     500 5.23e-3 8.64e-6 6.33e-5 2.04e-5 0.21724
              0. 0.17480 0.04929      0.      0.-0.17479-0.04929      0.
PBAR        5010     500 5.67e-3 9.59e-6 6.96e-5 2.28e-5 0.21985
              0. 0.17684 0.04988      0.      0.-0.17684-0.04988      0.
PBAR        5011     500 6.06e-3 1.04e-5 7.59e-5 2.48e-5 0.22254
              0. 0.17889 0.05048      0.      0.-0.17888-0.05047      0.
PBAR        5012     500 6.31e-3 1.09e-5 7.99e-5 2.60e-5 0.20915
              0. 0.18017 0.05077      0.      0.-0.18016-0.05077      0.
PBAR        5013     500 6.39e-3 1.11e-5 8.09e-5 2.63e-5 0.20915
              0. 0.18017 0.05077      0.      0.-0.18016-0.05077      0.
PBAR        5014     500 6.37e-3 1.10e-5 8.06e-5 2.62e-5 0.20915
              0. 0.18017 0.05077      0.      0.-0.18016-0.05077      0.
PBAR        5015     500 6.23e-3 1.08e-5 7.90e-5 2.57e-5 0.20915
              0. 0.18017 0.05077      0.      0.-0.18016-0.05077      0.
PBAR        5016     500 5.95e-3 1.04e-5 7.57e-5 2.48e-5 0.20915
              0. 0.18017 0.05077      0.      0.-0.18016-0.05077      0.
PBAR        5017     500 5.63e-3 9.85e-6 7.19e-5 2.34e-5 0.20915
              0. 0.18017 0.05077      0.      0.-0.18016-0.05077      0.
PBAR        5018     500 5.20e-3 9.08e-6 6.65e-5 2.16e-5 0.20915
              0. 0.18017 0.05077      0.      0.-0.18016-0.05077      0.
PBAR        5019     500 4.73e-3 8.19e-6 6.05e-5 1.93e-5 0.20915
              0. 0.18017 0.05077      0.      0.-0.18016-0.05077      0.
PBAR        5020     500 4.39e-3 7.25e-6 5.45e-5 1.63e-5 0.20915
              0. 0.18017 0.05077      0.      0.-0.18016-0.05077      0.
PBAR        5021     500 4.09e-3 6.17e-6 4.83e-5 1.24e-5 0.20915
              0. 0.18017 0.05077      0.      0.-0.18016-0.05077      0.
PBAR        5022     500 3.94e-3 4.82e-6 4.23e-5 6.71e-6 0.20915
              0. 0.18017 0.05077      0.      0.-0.18016-0.05077      0.
$
$-------2-------3-------4-------5-------6-------7-------8-------9-------10
$ Bar elements
$-------2-------3-------4-------5-------6-------7-------8-------9-------10
CBAR        5000    5000    5000    5001      0.      0.      1.     GGG
CBAR        5001    5001    5001    5002      0.      0.      1.     GGG
CBAR        5002    5002    5002    5003      0.-0.21473 0.97667     GGG
CBAR        5003    5003    5003    5004      0.-0.21473 0.97667     GGG
CBAR        5004    5004    5004    5005      0.-0.21473 0.97667     GGG
CBAR        5005    5005    5005    5006      0.-0.21473 0.97667     GGG
CBAR        5006    5006    5006    5007      0.-0.21473 0.97667     GGG
CBAR        5007    5007    5007    5008      0.-0.21473 0.97667     GGG
CBAR        5008    5008    5008    5009      0.-0.21473 0.97667     GGG
CBAR        5009    5009    5009    5010      0.-0.21473 0.97667     GGG
CBAR        5010    5010    5010    5011      0.-0.21473 0.97667     GGG
CBAR        5011    5011    5011    5012      0.-0.21473 0.97667     GGG
CBAR        5012    5012    5012    5013      0.-0.21473 0.97667     GGG
CBAR        5013    5013    5013    5014      0.-0.21473 0.97667     GGG
CBAR        5014    5014    5014    5015      0.-0.21473 0.97667     GGG
CBAR        5015    5015    5015    5016      0.-0.21473 0.97667     GGG
CBAR        5016    5016    5016    5017      0.-0.21473 0.97667     GGG
CBAR        5017    5017    5017    5018      0.-0.21473 0.97667     GGG
CBAR        5018    5018    5018    5019      0.-0.21473 0.97667     GGG
CBAR        5019    5019    5019    5020      0.-0.21473 0.97667     GGG
CBAR        5020    5020    5020    5021      0.-0.21473 0.97667     GGG
CBAR        5021    5021    5021    5022      0.-0.21473 0.97667     GGG
CBAR        5022    5022    5022    5023      0.-0.21473 0.97667     GGG
$ CBAR        5023    5000    5000    5024      0.      0.      1.     GGG
$ CBAR        5024    5001    5024    5025      0.      0.      1.     GGG
$ CBAR        5025    5002    5025    5026      0. 0.21474 0.97667     GGG
$ CBAR        5026    5003    5026    5027      0. 0.21474 0.97667     GGG
$ CBAR        5027    5004    5027    5028      0. 0.21474 0.97667     GGG
$ CBAR        5028    5005    5028    5029      0. 0.21474 0.97667     GGG
$ CBAR        5029    5006    5029    5030      0. 0.21474 0.97667     GGG
$ CBAR        5030    5007    5030    5031      0. 0.21474 0.97667     GGG
$ CBAR        5031    5008    5031    5032      0. 0.21474 0.97667     GGG
$ CBAR        5032    5009    5032    5033      0. 0.21474 0.97667     GGG
$ CBAR        5033    5010    5033    5034      0. 0.21474 0.97667     GGG
$ CBAR        5034    5011    5034    5035      0. 0.21474 0.97667     GGG
$ CBAR        5035    5012    5035    5036      0. 0.21474 0.97667     GGG
$ CBAR        5036    5013    5036    5037      0. 0.21474 0.97667     GGG
$ CBAR        5037    5014    5037    5038      0. 0.21474 0.97667     GGG
$ CBAR        5038    5015    5038    5039      0. 0.21474 0.97667     GGG
$ CBAR        5039    5016    5039    5040      0. 0.21474 0.97667     GGG
$ CBAR        5040    5017    5040    5041      0. 0.21474 0.97667     GGG
$ CBAR        5041    5018    5041    5042      0. 0.21474 0.97667     GGG
$ CBAR        5042    5019    5042    5043      0. 0.21474 0.97667     GGG
$ CBAR        5043    5020    5043    5044      0. 0.21474 0.97667     GGG
$ CBAR        5044    5021    5044    5045      0. 0.21474 0.97667     GGG
$ CBAR        5045    5022    5045    5046      0. 0.21474 0.97667     GGG
$
$-------2-------3-------4-------5-------6-------7-------8-------9-------10
$ Lumped masses                                                           
$-------2-------3-------4-------5-------6-------7-------8-------9-------10
CONM2        233    5000       0 0.96659-0.25085      0.      0.
              0.      0.      0.      0.      0.      0.
CONM2        234    5000       0 2.89978 0.32667      0.      0.
              0.      0.      0.      0.      0.      0.
CONM2        235    5001       0 1.93319-0.25085      0.      0.
              0.      0.      0.      0.      0.      0.
CONM2        236    5001       0 5.79956 0.32667      0.      0.
              0.      0.      0.      0.      0.      0.
CONM2        237    5002       0 1.84537-0.24619 0.05484 0.01206
              0.      0.      0.      0.      0.      0.
CONM2        238    5002       0 5.53610 0.32057-0.07140-0.01569
              0.      0.      0.      0.      0.      0.
CONM2        239    5003       0 1.78043-0.24942 0.05556 0.01222
              0.      0.      0.      0.      0.      0.
CONM2        240    5003       0 5.34130 0.32473-0.07233-0.01590
              0.      0.      0.      0.      0.      0.
CONM2        241    5004       0 1.82651-0.25266 0.05628 0.01237
              0.      0.      0.      0.      0.      0.
CONM2        242    5004       0 5.47952 0.32889-0.07325-0.01610
              0.      0.      0.      0.      0.      0.
CONM2        243    5005       0 1.87317-0.25589 0.05700 0.01253
              0.      0.      0.      0.      0.      0.
CONM2        244    5005       0 5.61950 0.33304-0.07418-0.01631
              0.      0.      0.      0.      0.      0.
CONM2        245    5006       0 1.92041-0.25913 0.05772 0.01269
              0.      0.      0.      0.      0.      0.
CONM2        246    5006       0 5.76123 0.33720-0.07510-0.01651
              0.      0.      0.      0.      0.      0.
CONM2        247    5007       0 1.96824-0.26237 0.05844 0.01285
              0.      0.      0.      0.      0.      0.
CONM2        248    5007       0 5.90472 0.34136-0.07603-0.01671
              0.      0.      0.      0.      0.      0.
CONM2        249    5008       0 2.01667-0.26561 0.05916 0.01301
              0.      0.      0.      0.      0.      0.
CONM2        250    5008       0 6.05000 0.34551-0.07695-0.01692
              0.      0.      0.      0.      0.      0.
CONM2        251    5009       0 2.06568-0.26885 0.05988 0.01317
              0.      0.      0.      0.      0.      0.
CONM2        252    5009       0 6.19704 0.34967-0.07788-0.01712
              0.      0.      0.      0.      0.      0.
$ ... 56 like lines cut
$ CONM2        281    5000       0 0.96659-0.25085      0.      0.
$               0.      0.      0.      0.      0.      0.
$ CONM2        282    5000       0 2.89978 0.32667      0.      0.
$               0.      0.      0.      0.      0.      0.
$ CONM2        283    5024       0 1.93319-0.25085      0.      0.
$               0.      0.      0.      0.      0.      0.
$ CONM2        284    5024       0 5.79956 0.32667      0.      0.
$               0.      0.      0.      0.      0.      0.
$ CONM2        285    5025       0 1.84537-0.24619-0.05483 0.01206
$               0.      0.      0.      0.      0.      0.
$ CONM2        286    5025       0 5.53610 0.32057 0.07140-0.01569
$               0.      0.      0.      0.      0.      0.
$ CONM2        287    5026       0 1.78043-0.24942-0.05555 0.01222
$               0.      0.      0.      0.      0.      0.
$ CONM2        288    5026       0 5.34130 0.32473 0.07233-0.01590
$               0.      0.      0.      0.      0.      0.
$ CONM2        289    5027       0 1.82651-0.25266-0.05627 0.01237
$               0.      0.      0.      0.      0.      0.
$ CONM2        290    5027       0 5.47952 0.32889 0.07326-0.01610
$               0.      0.      0.      0.      0.      0.
$ CONM2        291    5028       0 1.87317-0.25589-0.05699 0.01253
$               0.      0.      0.      0.      0.      0.
$ CONM2        292    5028       0 5.61950 0.33304 0.07418-0.01631
$               0.      0.      0.      0.      0.      0.
$ CONM2        293    5029       0 1.92041-0.25913-0.05772 0.01269
$               0.      0.      0.      0.      0.      0.
$ CONM2        294    5029       0 5.76123 0.33720 0.07511-0.01651
$               0.      0.      0.      0.      0.      0.
$ CONM2        295    5030       0 1.96824-0.26237-0.05844 0.01285
$               0.      0.      0.      0.      0.      0.
$ CONM2        296    5030       0 5.90472 0.34136 0.07603-0.01671
$               0.      0.      0.      0.      0.      0.
$ CONM2        297    5031       0 2.01667-0.26561-0.05916 0.01301
$               0.      0.      0.      0.      0.      0.
$ CONM2        298    5031       0 6.05000 0.34551 0.07696-0.01692
$               0.      0.      0.      0.      0.      0.
$ CONM2        299    5032       0 2.06568-0.26885-0.05988 0.01317
$               0.      0.      0.      0.      0.      0.
$ CONM2        300    5032       0 6.19704 0.34967 0.07788-0.01712
$               0.      0.      0.      0.      0.      0.
$ ... 56 like lines cut
$
$-------2-------3-------4-------5-------6-------7-------8-------9-------10
$ Box cross nodes
$-------2-------3-------4-------5-------6-------7-------8-------9-------10
RBE2        5000    5000  123456   50000   50001   50002   50003
RBE2        5001    5001  123456   50004   50005   50006   50007
RBE2        5002    5002  123456   50008   50009   50010   50011
RBE2        5003    5003  123456   50012   50013   50014   50015
RBE2        5004    5004  123456   50016   50017   50018   50019
RBE2        5005    5005  123456   50020   50021   50022   50023
RBE2        5006    5006  123456   50024   50025   50026   50027
RBE2        5007    5007  123456   50028   50029   50030   50031
RBE2        5008    5008  123456   50032   50033   50034   50035
RBE2        5009    5009  123456   50036   50037   50038   50039
RBE2        5010    5010  123456   50040   50041   50042   50043
RBE2        5011    5011  123456   50044   50045   50046   50047
RBE2        5012    5012  123456   50048   50049   50050   50051
RBE2        5013    5013  123456   50052   50053   50054   50055
RBE2        5014    5014  123456   50056   50057   50058   50059
RBE2        5015    5015  123456   50060   50061   50062   50063
RBE2        5016    5016  123456   50064   50065   50066   50067
RBE2        5017    5017  123456   50068   50069   50070   50071
RBE2        5018    5018  123456   50072   50073   50074   50075
RBE2        5019    5019  123456   50076   50077   50078   50079
$ ... 4 like lines cut
$ RBE2        5024    5024  123456   50100   50101   50102   50103
$ RBE2        5025    5025  123456   50104   50105   50106   50107
$ RBE2        5026    5026  123456   50108   50109   50110   50111
$ RBE2        5027    5027  123456   50112   50113   50114   50115
$ RBE2        5028    5028  123456   50116   50117   50118   50119
$ RBE2        5029    5029  123456   50120   50121   50122   50123
$ RBE2        5030    5030  123456   50124   50125   50126   50127
$ RBE2        5031    5031  123456   50128   50129   50130   50131
$ RBE2        5032    5032  123456   50132   50133   50134   50135
$ RBE2        5033    5033  123456   50136   50137   50138   50139
$ RBE2        5034    5034  123456   50140   50141   50142   50143
$ RBE2        5035    5035  123456   50144   50145   50146   50147
$ RBE2        5036    5036  123456   50148   50149   50150   50151
$ RBE2        5037    5037  123456   50152   50153   50154   50155
$ RBE2        5038    5038  123456   50156   50157   50158   50159
$ RBE2        5039    5039  123456   50160   50161   50162   50163
$ RBE2        5040    5040  123456   50164   50165   50166   50167
$ RBE2        5041    5041  123456   50168   50169   50170   50171
$ RBE2        5042    5042  123456   50172   50173   50174   50175
$ RBE2        5043    5043  123456   50176   50177   50178   50179
$ RBE2        5044    5044  123456   50180   50181   50182   50183
$ RBE2        5045    5045  123456   50184   50185   50186   50187
$ RBE2        5046    5046  123456   50188   50189   50190   50191
