$-------2-------3-------4-------5-------6-------7-------8-------9-------10
$ Node definition                                                         
$-------2-------3-------4-------5-------6-------7-------8-------9-------10                
GRID        5001       0 24.3733 0.60330-1.64490       0                
GRID        5002       0 24.3733 1.20660-1.64490       0                
GRID        5003       0 24.5400 1.93110-1.51477       0                
GRID        5004       0 24.7068 2.65570-1.38462       0                
GRID        5005       0 24.8736 3.38020-1.25448       0                
GRID        5006       0 25.0403 4.10470-1.12435       0                
GRID        5007       0 25.2071 4.82930-0.99420       0                
GRID        5008       0 25.3738 5.55380-0.86406       0                
GRID        5009       0 25.5406 6.27830-0.73393       0                
GRID        5010       0 25.7074 7.00290-0.60378       0                
GRID        5011       0 25.8741 7.72740-0.47365       0                
GRID        5012       0 26.0409 8.45200-0.34350       0                
GRID        5013       0 26.2171 9.21780-0.20594       0                
GRID        5014       0 26.3934 9.98350-0.06841       0                
GRID        5015       0 26.5696 10.7493 0.06914       0                
GRID        5016       0 26.7459 11.5151 0.20669       0                
GRID        5017       0 26.9221 12.2809 0.34424       0                
GRID        5018       0 27.0984 13.0467 0.48179       0                
GRID        5019       0 27.2746 13.8125 0.61935       0                
GRID        5020       0 27.4509 14.5783 0.75690       0                
$ ... 215 like lines cut
$
$-------2-------3-------4-------5-------6-------7-------8-------9-------10
$ Material properties                                                     
$-------2-------3-------4-------5-------6-------7-------8-------9-------10
MAT1         500 7.37e10 2.83e10 0.30000 2795.72
$
$-------2-------3-------4-------5-------6-------7-------8-------9-------10
$ Bar properties
$-------2-------3-------4-------5-------6-------7-------8-------9-------10
PBAR        5000     500 7.33e-3 9.91e-6 7.08e-5 2.34e-5 0.24981
              0. 0.15945 0.04485      0.      0.-0.15944-0.04484      0.
PBAR        5001     500 7.33e-3 9.91e-6 7.08e-5 2.34e-5 0.24981
              0. 0.15945 0.04485      0.      0.-0.15944-0.04484      0.
PBAR        5002     500 6.78e-3 9.37e-6 6.69e-5 2.23e-5 0.19890
              0. 0.16047 0.04514      0.      0.-0.16047-0.04514      0.
PBAR        5003     500 5.52e-3 7.81e-6 5.65e-5 1.86e-5 0.20153
              0. 0.16252 0.04574      0.      0.-0.16251-0.04573      0.
PBAR        5004     500 4.18e-3 5.96e-6 4.38e-5 1.41e-5 0.20415
              0. 0.16456 0.04633      0.      0.-0.16456-0.04632      0.
PBAR        5005     500 3.58e-3 4.32e-6 3.47e-5 8.05e-6 0.20677
              0. 0.16661 0.04692      0.      0.-0.16661-0.04692      0.
PBAR        5006     500 3.57e-3 4.27e-6 3.51e-5 7.45e-6 0.20938
              0. 0.16866 0.04751      0.      0.-0.16865-0.04751      0.
PBAR        5007     500   4.e-3 5.93e-6 4.44e-5 1.33e-5 0.21200
              0. 0.17070 0.04811      0.      0.-0.17070-0.04810      0.
PBAR        5008     500 4.52e-3 7.27e-6 5.32e-5 1.73e-5 0.21462
              0. 0.17275 0.04870      0.      0.-0.17274-0.04869      0.
PBAR        5009     500 5.23e-3 8.64e-6 6.33e-5 2.04e-5 0.21724
              0. 0.17480 0.04929      0.      0.-0.17479-0.04929      0.
PBAR        5010     500 5.67e-3 9.59e-6 6.96e-5 2.28e-5 0.21985
              0. 0.17684 0.04988      0.      0.-0.17684-0.04988      0.
PBAR        5011     500 6.06e-3 1.04e-5 7.59e-5 2.48e-5 0.22254
              0. 0.17889 0.05048      0.      0.-0.17888-0.05047      0.
PBAR        5012     500 6.31e-3 1.09e-5 7.99e-5 2.60e-5 0.20915
              0. 0.18017 0.05077      0.      0.-0.18016-0.05077      0.
PBAR        5013     500 6.39e-3 1.11e-5 8.09e-5 2.63e-5 0.20915
              0. 0.18017 0.05077      0.      0.-0.18016-0.05077      0.
PBAR        5014     500 6.37e-3 1.10e-5 8.06e-5 2.62e-5 0.20915
              0. 0.18017 0.05077      0.      0.-0.18016-0.05077      0.
PBAR        5015     500 6.23e-3 1.08e-5 7.90e-5 2.57e-5 0.20915
              0. 0.18017 0.05077      0.      0.-0.18016-0.05077      0.
PBAR        5016     500 5.95e-3 1.04e-5 7.57e-5 2.48e-5 0.20915
              0. 0.18017 0.05077      0.      0.-0.18016-0.05077      0.
PBAR        5017     500 5.63e-3 9.85e-6 7.19e-5 2.34e-5 0.20915
              0. 0.18017 0.05077      0.      0.-0.18016-0.05077      0.
PBAR        5018     500 5.20e-3 9.08e-6 6.65e-5 2.16e-5 0.20915
              0. 0.18017 0.05077      0.      0.-0.18016-0.05077      0.
PBAR        5019     500 4.73e-3 8.19e-6 6.05e-5 1.93e-5 0.20915
              0. 0.18017 0.05077      0.      0.-0.18016-0.05077      0.
PBAR        5020     500 4.39e-3 7.25e-6 5.45e-5 1.63e-5 0.20915
              0. 0.18017 0.05077      0.      0.-0.18016-0.05077      0.
PBAR        5021     500 4.09e-3 6.17e-6 4.83e-5 1.24e-5 0.20915
              0. 0.18017 0.05077      0.      0.-0.18016-0.05077      0.
PBAR        5022     500 3.94e-3 4.82e-6 4.23e-5 6.71e-6 0.20915
              0. 0.18017 0.05077      0.      0.-0.18016-0.05077      0.
$
$-------2-------3-------4-------5-------6-------7-------8-------9-------10
$ Bar elements
$-------2-------3-------4-------5-------6-------7-------8-------9-------10
CBAR        5000    5000    5000    5001      0.      0.      1.     GGG
CBAR        5001    5001    5001    5002      0.      0.      1.     GGG
CBAR        5002    5002    5002    5003      0.-0.21473 0.97667     GGG
CBAR        5003    5003    5003    5004      0.-0.21473 0.97667     GGG
CBAR        5004    5004    5004    5005      0.-0.21473 0.97667     GGG
CBAR        5005    5005    5005    5006      0.-0.21473 0.97667     GGG
CBAR        5006    5006    5006    5007      0.-0.21473 0.97667     GGG
CBAR        5007    5007    5007    5008      0.-0.21473 0.97667     GGG
CBAR        5008    5008    5008    5009      0.-0.21473 0.97667     GGG
CBAR        5009    5009    5009    5010      0.-0.21473 0.97667     GGG
CBAR        5010    5010    5010    5011      0.-0.21473 0.97667     GGG
CBAR        5011    5011    5011    5012      0.-0.21473 0.97667     GGG
CBAR        5012    5012    5012    5013      0.-0.21473 0.97667     GGG
CBAR        5013    5013    5013    5014      0.-0.21473 0.97667     GGG
CBAR        5014    5014    5014    5015      0.-0.21473 0.97667     GGG
CBAR        5015    5015    5015    5016      0.-0.21473 0.97667     GGG
CBAR        5016    5016    5016    5017      0.-0.21473 0.97667     GGG
CBAR        5017    5017    5017    5018      0.-0.21473 0.97667     GGG
CBAR        5018    5018    5018    5019      0.-0.21473 0.97667     GGG
CBAR        5019    5019    5019    5020      0.-0.21473 0.97667     GGG
$ ... 26 like lines cut
$
$-------2-------3-------4-------5-------6-------7-------8-------9-------10
$ Lumped masses                                                           
$-------2-------3-------4-------5-------6-------7-------8-------9-------10
CONM2        233    5000       0 0.96659-0.25085      0.      0.
              0.      0.      0.      0.      0.      0.
CONM2        234    5000       0 2.89978 0.32667      0.      0.
              0.      0.      0.      0.      0.      0.
CONM2        235    5001       0 1.93319-0.25085      0.      0.
              0.      0.      0.      0.      0.      0.
CONM2        236    5001       0 5.79956 0.32667      0.      0.
              0.      0.      0.      0.      0.      0.
CONM2        237    5002       0 1.84537-0.24619 0.05484 0.01206
              0.      0.      0.      0.      0.      0.
CONM2        238    5002       0 5.53610 0.32057-0.07140-0.01569
              0.      0.      0.      0.      0.      0.
CONM2        239    5003       0 1.78043-0.24942 0.05556 0.01222
              0.      0.      0.      0.      0.      0.
CONM2        240    5003       0 5.34130 0.32473-0.07233-0.01590
              0.      0.      0.      0.      0.      0.
CONM2        241    5004       0 1.82651-0.25266 0.05628 0.01237
              0.      0.      0.      0.      0.      0.
CONM2        242    5004       0 5.47952 0.32889-0.07325-0.01610
              0.      0.      0.      0.      0.      0.
CONM2        243    5005       0 1.87317-0.25589 0.05700 0.01253
              0.      0.      0.      0.      0.      0.
CONM2        244    5005       0 5.61950 0.33304-0.07418-0.01631
              0.      0.      0.      0.      0.      0.
CONM2        245    5006       0 1.92041-0.25913 0.05772 0.01269
              0.      0.      0.      0.      0.      0.
CONM2        246    5006       0 5.76123 0.33720-0.07510-0.01651
              0.      0.      0.      0.      0.      0.
CONM2        247    5007       0 1.96824-0.26237 0.05844 0.01285
              0.      0.      0.      0.      0.      0.
CONM2        248    5007       0 5.90472 0.34136-0.07603-0.01671
              0.      0.      0.      0.      0.      0.
CONM2        249    5008       0 2.01667-0.26561 0.05916 0.01301
              0.      0.      0.      0.      0.      0.
CONM2        250    5008       0 6.05000 0.34551-0.07695-0.01692
              0.      0.      0.      0.      0.      0.
CONM2        251    5009       0 2.06568-0.26885 0.05988 0.01317
              0.      0.      0.      0.      0.      0.
CONM2        252    5009       0 6.19704 0.34967-0.07788-0.01712
              0.      0.      0.      0.      0.      0.
$ ... 152 like lines cut
$
$-------2-------3-------4-------5-------6-------7-------8-------9-------10
$ Box cross nodes
$-------2-------3-------4-------5-------6-------7-------8-------9-------10
RBE2        5000    5000  123456   50000   50001   50002   50003
RBE2        5001    5001  123456   50004   50005   50006   50007
RBE2        5002    5002  123456   50008   50009   50010   50011
RBE2        5003    5003  123456   50012   50013   50014   50015
RBE2        5004    5004  123456   50016   50017   50018   50019
RBE2        5005    5005  123456   50020   50021   50022   50023
RBE2        5006    5006  123456   50024   50025   50026   50027
RBE2        5007    5007  123456   50028   50029   50030   50031
RBE2        5008    5008  123456   50032   50033   50034   50035
RBE2        5009    5009  123456   50036   50037   50038   50039
RBE2        5010    5010  123456   50040   50041   50042   50043
RBE2        5011    5011  123456   50044   50045   50046   50047
RBE2        5012    5012  123456   50048   50049   50050   50051
RBE2        5013    5013  123456   50052   50053   50054   50055
RBE2        5014    5014  123456   50056   50057   50058   50059
RBE2        5015    5015  123456   50060   50061   50062   50063
RBE2        5016    5016  123456   50064   50065   50066   50067
RBE2        5017    5017  123456   50068   50069   50070   50071
RBE2        5018    5018  123456   50072   50073   50074   50075
RBE2        5019    5019  123456   50076   50077   50078   50079
$ ... 27 like lines cut
