$
$-------2-------3-------4-------5-------6-------7-------8-------9-------10
$ Node definition                                                         
$-------2-------3-------4-------5-------6-------7-------8-------9-------10
GRID        1000       0      0.      0.-0.65484       0                
GRID        1001       0 1.47944      0.-0.50799       0                
GRID        1002       0 2.95888      0.-0.36113       0                
GRID        1003       0 4.43832      0.-0.21427       0                
GRID        1004       0 6.59700      0. 4.76e-6       0                
GRID        1005       0 7.39720      0. 4.42e-6       0                
GRID        1006       0 8.87664      0. 3.79e-6       0                
GRID        1007       0 10.3561      0. 3.16e-6       0                
GRID        1008       0 11.8355      0. 2.53e-6       0                
GRID        1009       0 13.3150      0. 1.90e-6       0                
GRID        1010       0 14.7944      0. 1.27e-6       0                
GRID        1011       0 16.2738      0. 6.48e-7       0                
GRID        1012       0 17.7973      0.      0.       0                
GRID        1013       0 19.2327      0.      0.       0                
GRID        1014       0 20.7122      0.      0.       0                
GRID        1015       0 22.1916      0.      0.       0                
GRID        1016       0 23.3402      0.      0.       0                
GRID        1017       0 24.3733      0.      0.       0                
GRID        1018       0 26.6299      0.      0.       0                
GRID        1019       0 28.1094      0.      0.       0                
$ ... 135 like lines cut
$
$-------2-------3-------4-------5-------6-------7-------8-------9-------10
$ Material properties                                                     
$-------2-------3-------4-------5-------6-------7-------8-------9-------10
MAT1         100 7.20e10 2.77e10 0.30000   2810.
$
$-------2-------3-------4-------5-------6-------7-------8-------9-------10
$ Bar properties
$-------2-------3-------4-------5-------6-------7-------8-------9-------10
PBAR        1000     100 0.01339 4.81e-3 4.81e-3 9.62e-3 343.168
         0.68068      0.      0. 0.68068-0.68068      0.      0.-0.68068
PBAR        1001     100 0.02805 0.02130 0.02130 0.04261 337.386
         1.21591      0.      0. 1.21591-1.21591      0.      0.-1.21591
PBAR        1002     100 0.03573 0.04339 0.04339 0.08678 331.387
         1.55118      0.      0. 1.55118-1.55118      0.      0.-1.55118
PBAR        1003     100 0.04295 0.07558 0.07558 0.15117 222.994
         1.87252      0.      0. 1.87252-1.87252      0.      0.-1.87252
PBAR        1004     100 0.04679 0.09703 0.09703 0.19407 619.158
         2.04001      0.      0. 2.04001-2.04001      0.      0.-2.04001
PBAR        1005     100 0.04711 0.09803 0.09803 0.19606 342.563
         2.04001      0.      0. 2.04001-2.04001      0.      0.-2.04001
PBAR        1006     100 0.04717 0.09814 0.09814 0.19629 349.090
         2.04001      0.      0. 2.04001-2.04001      0.      0.-2.04001
PBAR        1007     100 0.04729 0.09839 0.09839 0.19679 355.618
         2.04000      0.      0. 2.04000-2.04000      0.      0.-2.04000
PBAR        1008     100 0.04751 0.09885 0.09885 0.19769 362.146
         2.04000      0.      0. 2.04000-2.04000      0.      0.-2.04000
PBAR        1009     100 0.04788 0.09960 0.09960 0.19919 368.673
         2.04000      0.      0. 2.04000-2.04000      0.      0.-2.04000
PBAR        1010     100 0.04843 0.10077 0.10077 0.20153 375.201
         2.04000      0.      0. 2.04000-2.04000      0.      0.-2.04000
PBAR        1011     100 0.04927 0.10250 0.10250 0.20499 371.083
         2.04000      0.      0. 2.04000-2.04000      0.      0.-2.04000
PBAR        1012     100 0.05043 0.10488 0.10488 0.20977 399.965
         2.04000      0.      0. 2.04000-2.04000      0.      0.-2.04000
PBAR        1013     100 0.05196 0.10811 0.10811 0.21622 394.784
         2.04000      0.      0. 2.04000-2.04000      0.      0.-2.04000
PBAR        1014     100 0.05410 0.11242 0.11242 0.22484 401.312
         2.04000      0.      0. 2.04000-2.04000      0.      0.-2.04000
PBAR        1015     100 0.06035 0.12557 0.12557 0.25115 529.808
         2.04000      0.      0. 2.04000-2.04000      0.      0.-2.04000
PBAR        1016     100 0.06703 0.13947 0.13947 0.27895 594.115
         2.04000      0.      0. 2.04000-2.04000      0.      0.-2.04000
PBAR        1017     100 0.06553 0.13637 0.13637 0.27274 273.686
         2.04000      0.      0. 2.04000-2.04000      0.      0.-2.04000
PBAR        1018     100 0.05959 0.12369 0.12369 0.24739 427.422
         2.04000      0.      0. 2.04000-2.04000      0.      0.-2.04000
PBAR        1019     100 0.05641 0.11738 0.11738 0.23476 433.950
         2.04000      0.      0. 2.04000-2.04000      0.      0.-2.04000
$ ... 20 like lines cut
$
$-------2-------3-------4-------5-------6-------7-------8-------9-------10
$ Bar elements
$-------2-------3-------4-------5-------6-------7-------8-------9-------10
CBAR        1000    1000    1000    1001-0.09877      0. 0.99511     GGG
CBAR        1001    1001    1001    1002-0.09877      0. 0.99511     GGG
CBAR        1002    1002    1002    1003-0.09877      0. 0.99511     GGG
CBAR        1003    1003    1003    1004-0.09877      0. 0.99511     GGG
CBAR        1004    1004    1004    1005 4.25e-7      0.      1.     GGG
CBAR        1005    1005    1005    1006 4.25e-7      0.      1.     GGG
CBAR        1006    1006    1006    1007 4.25e-7      0.      1.     GGG
CBAR        1007    1007    1007    1008 4.25e-7      0.      1.     GGG
CBAR        1008    1008    1008    1009 4.25e-7      0.      1.     GGG
CBAR        1009    1009    1009    1010 4.25e-7      0.      1.     GGG
CBAR        1010    1010    1010    1011 4.25e-7      0.      1.     GGG
CBAR        1011    1011    1011    1012 4.25e-7      0.      1.     GGG
CBAR        1012    1012    1012    1013      0.      0.      1.     GGG
CBAR        1013    1013    1013    1014      0.      0.      1.     GGG
CBAR        1014    1014    1014    1015      0.      0.      1.     GGG
CBAR        1015    1015    1015    1016      0.      0.      1.     GGG
CBAR        1016    1016    1016    1017      0.      0.      1.     GGG
CBAR        1017    1017    1017    1018      0.      0.      1.     GGG
CBAR        1018    1018    1018    1019      0.      0.      1.     GGG
CBAR        1019    1019    1019    1020      0.      0.      1.     GGG
$ ... 10 like lines cut
$
$-------2-------3-------4-------5-------6-------7-------8-------9-------10
$ Lumped masses                                                           
$-------2-------3-------4-------5-------6-------7-------8-------9-------10
CONM2        145    1000       0 13.1554      0.      0.      0.
         3.04154      0. 2.42312 0.06139      0. 2.42922
CONM2        146    1001       0 50.7306      0.      0.      0.
         30.6144      0. 9.34419 2.11139      0. 9.55378
CONM2        147    1002       0 98.3422      0.      0.      0.
         100.076      0. 18.1139 8.13596      0. 18.9215
CONM2        148    1003       0 188.814      0.      0.      0.
         295.290      0. 61.4064 23.2165      0. 63.7110
CONM2        149    1004       0 183.970      0.      0.      0.
         339.154      0. 53.1977 17.1305      0. 54.8982
CONM2        150    1005       0 160.238      0.      0.      0.
         333.426      0. 22.0106-1.30e-4      0. 22.0106
CONM2        151    1006       0 208.603      0.      0.      0.
         434.064      0. 38.0482-1.60e-4      0. 38.0482
CONM2        152    1007       0 208.574      0.      0.      0.
         434.003      0. 38.0429-1.60e-4      0. 38.0429
CONM2        153    1008       0 208.571      0.      0.      0.
         433.996      0. 38.0423-1.60e-4      0. 38.0423
CONM2        154    1009       0 208.571      0.      0.      0.
         433.995      0. 38.0423-1.60e-4      0. 38.0423
CONM2        155    1010       0 208.570      0.      0.      0.
         433.994      0. 38.0422-1.60e-4      0. 38.0422
CONM2        156    1011       0 211.674      0.      0.      0.
         440.451      0. 39.7914-1.70e-4      0. 39.7914
CONM2        157    1012       0 208.570      0.      0.      0.
         433.993      0. 38.1433-8.60e-5      0. 38.1433
CONM2        158    1013       0 205.467      0.      0.      0.
         427.535      0. 36.3940      0.      0. 36.3940
CONM2        159    1014       0 208.570      0.      0.      0.
         433.992      0. 38.0422      0.      0. 38.0422
CONM2        160    1015       0 185.250      0.      0.      0.
         385.468      0. 27.9225      0.      0. 27.9225
CONM2        161    1016       0 153.784      0.      0.      0.
         319.994      0. 15.3775      0.      0. 15.3775
CONM2        162    1017       0 231.890      0.      0.      0.
         482.516      0. 73.9817      0.      0. 73.9817
CONM2        163    1018       0 263.354      0.      0.      0.
         547.986      0. 86.5264      0.      0. 86.5264
CONM2        164    1019       0 208.568      0.      0.      0.
         433.988      0. 38.0418      0.      0. 38.0418
$ ... 28 like lines cut
$
$-------2-------3-------4-------5-------6-------7-------8-------9-------10
$ Box cross nodes
$-------2-------3-------4-------5-------6-------7-------8-------9-------10
RBE2        1000    1000  123456   10000   10001   10002   10003
RBE2        1001    1001  123456   10004   10005   10006   10007
RBE2        1002    1002  123456   10008   10009   10010   10011
RBE2        1003    1003  123456   10012   10013   10014   10015
RBE2        1004    1004  123456   10016   10017   10018   10019
RBE2        1005    1005  123456   10020   10021   10022   10023
RBE2        1006    1006  123456   10024   10025   10026   10027
RBE2        1007    1007  123456   10028   10029   10030   10031
RBE2        1008    1008  123456   10032   10033   10034   10035
RBE2        1009    1009  123456   10036   10037   10038   10039
RBE2        1010    1010  123456   10040   10041   10042   10043
RBE2        1011    1011  123456   10044   10045   10046   10047
RBE2        1012    1012  123456   10048   10049   10050   10051
RBE2        1013    1013  123456   10052   10053   10054   10055
RBE2        1014    1014  123456   10056   10057   10058   10059
RBE2        1015    1015  123456   10060   10061   10062   10063
RBE2        1016    1016  123456   10064   10065   10066   10067
RBE2        1017    1017  123456   10068   10069   10070   10071
RBE2        1018    1018  123456   10072   10073   10074   10075
RBE2        1019    1019  123456   10076   10077   10078   10079
$ ... 11 like lines cut