$ wing
$-------2-------3-------4-------5-------6-------7-------8-------9-------10
$ Node definition                                                         
$-------2-------3-------4-------5-------6-------7-------8-------9-------10
$ Structural Nodes
GRID        2000       0 23.3402      0. 2.05670       0                
GRID        2001       0 23.3402 1.02000 2.05670       0                
GRID        2002       0 23.3402 2.04000 2.05670       0                
GRID        2003       0 23.5655 2.77019 2.06442       0                
GRID        2004       0 23.7907 3.50038 2.07214       0                
GRID        2005       0 24.0159 4.23057 2.07986       0                
GRID        2006       0 24.2412 4.96076 2.08759       0                
GRID        2007       0 24.4664 5.69095 2.09531       0                
GRID        2008       0 24.6917 6.42114 2.10303       0                
GRID        2009       0 24.9169 7.15133 2.11075       0                
GRID        2010       0 25.1422 7.88152 2.11847       0                
GRID        2011       0 25.3674 8.61171 2.12619       0                
GRID        2012       0 25.6071 9.39904 2.13032       0                
GRID        2013       0 25.8468 10.1864 2.13444       0                
GRID        2014       0 26.0865 10.9737 2.13857       0                
GRID        2015       0 26.3263 11.7610 2.14269       0                
GRID        2016       0 26.5660 12.5484 2.14682       0                
GRID        2017       0 26.8057 13.3357 2.15094       0                
GRID        2018       0 27.0454 14.1230 2.15507       0                
GRID        2019       0 27.2851 14.9104 2.15919       0                
$ ... 16 like lines cut
$ GRID        2036       0 23.3402-1.02000 2.05670       0                
$ GRID        2037       0 23.3402-2.04000 2.05670       0                
$ GRID        2038       0 23.5655-2.77019 2.06442       0                
$ GRID        2039       0 23.7907-3.50038 2.07214       0                
$ GRID        2040       0 24.0159-4.23057 2.07986       0                
$ GRID        2041       0 24.2412-4.96076 2.08759       0                
$ GRID        2042       0 24.4664-5.69095 2.09531       0                
$ GRID        2043       0 24.6917-6.42114 2.10303       0                
$ GRID        2044       0 24.9169-7.15133 2.11075       0                
$ GRID        2045       0 25.1422-7.88152 2.11847       0                
$ GRID        2046       0 25.3674-8.61171 2.12619       0                
$ GRID        2047       0 25.6071-9.39904 2.13032       0                
$ GRID        2048       0 25.8468-10.1864 2.13444       0                
$ GRID        2049       0 26.0865-10.9737 2.13857       0                
$ GRID        2050       0 26.3263-11.7610 2.14269       0                
$ GRID        2051       0 26.5660-12.5484 2.14682       0                
$ GRID        2052       0 26.8057-13.3357 2.15094       0                
$ GRID        2053       0 27.0454-14.1230 2.15507       0                
$ GRID        2054       0 27.2851-14.9104 2.15919       0                
$ GRID        2055       0 27.5248-15.6977 2.16332       0                
$ ... 15 like lines cut
$ AeroNodes LE/TE               
GRID       20000       0 22.3908      0. 2.13876       0                
GRID       20001       0 23.3216      0. 1.84184       0                
GRID       20002       0 24.2897      0. 1.97464       0                
GRID       20003       0 23.3588      0. 2.27156       0                
GRID       20004       0 22.4296 1.02000 2.05670       0                
GRID       20005       0 23.3402 1.02000 1.84104       0                
GRID       20006       0 24.2509 1.02000 2.05670       0                
GRID       20007       0 23.3402 1.02000 2.27236       0                
GRID       20008       0 22.4296 2.04000 2.05670       0                
GRID       20009       0 23.3402 2.04000 1.84104       0                
GRID       20010       0 24.2509 2.04000 2.05670       0                
GRID       20011       0 23.3402 2.04000 2.27236       0                
GRID       20012       0 22.7138 3.03237 2.11622       0                
GRID       20013       0 23.5545 2.77577 1.85598       0                
GRID       20014       0 24.4172 2.50801 2.01262       0                
GRID       20015       0 23.5764 2.76461 2.27286       0                
GRID       20016       0 22.9562 3.75727 2.12290       0                
GRID       20017       0 23.7801 3.50578 1.87055       0                
GRID       20018       0 24.6252 3.24348 2.02139       0                
GRID       20019       0 23.8013 3.49498 2.27374       0                
$ ... 124 like lines cut
$ GRID       20144       0 22.4296-1.02000 2.05670       0                
$ GRID       20145       0 23.3402-1.02000 1.84104       0                
$ GRID       20146       0 24.2509-1.02000 2.05670       0                
$ GRID       20147       0 23.3402-1.02000 2.27236       0                
$ GRID       20148       0 22.4296-2.04000 2.05670       0                
$ GRID       20149       0 23.3402-2.04000 1.84104       0                
$ GRID       20150       0 24.2509-2.04000 2.05670       0                
$ GRID       20151       0 23.3402-2.04000 2.27236       0                
$ GRID       20152       0 22.7138-3.03237 2.11622       0                
$ GRID       20153       0 23.5545-2.77577 1.85598       0                
$ GRID       20154       0 24.4172-2.50801 2.01262       0                
$ GRID       20155       0 23.5764-2.76461 2.27286       0                
$ GRID       20156       0 22.9562-3.75727 2.12290       0                
$ GRID       20157       0 23.7801-3.50578 1.87055       0                
$ GRID       20158       0 24.6252-3.24348 2.02139       0                
$ GRID       20159       0 23.8013-3.49498 2.27374       0                
$ GRID       20160       0 23.1986-4.48218 2.12957       0                
$ GRID       20161       0 24.0057-4.23579 1.88511       0                
$ GRID       20162       0 24.8333-3.97896 2.03015       0                
$ GRID       20163       0 24.0262-4.22535 2.27461       0                
$ ... 120 like lines cut
$
$-------2-------3-------4-------5-------6-------7-------8-------9-------10
$ Material properties                                                     
$-------2-------3-------4-------5-------6-------7-------8-------9-------10
MAT1         200 7.20e10 2.77e10 0.30000   2800.
$
$-------2-------3-------4-------5-------6-------7-------8-------9-------10
$ Bar properties
$-------2-------3-------4-------5-------6-------7-------8-------9-------10
PBAR        2000     200 0.05125 2.65e-3 0.01827 3.87e-3 0.71048
              0. 0.91064 0.21566      0.      0.-0.91064-0.21566      0.
PBAR        2001     200 0.05126 2.65e-3 0.01827 3.87e-3 0.71048
              0. 0.91064 0.21566      0.      0.-0.91064-0.21566      0.
PBAR        2002     200 0.07155 3.51e-3 0.02406 6.36e-3 0.94262
              0. 0.90165 0.21223      0.      0.-0.90164-0.21223      0.
PBAR        2003     200 0.09109 4.18e-3 0.02909 8.48e-3 0.92392
              0. 0.88365 0.20538      0.      0.-0.88365-0.20537      0.
PBAR        2004     200 0.08959 3.83e-3 0.02760 7.79e-3 0.90533
              0. 0.86565 0.19852      0.      0.-0.86565-0.19851      0.
PBAR        2005     200 0.08591 3.42e-3 0.02489 7.13e-3 0.88674
              0. 0.84766 0.19166      0.      0.-0.84765-0.19166      0.
PBAR        2006     200 0.08215 3.04e-3 0.02221 6.50e-3 0.86814
              0. 0.82966 0.18480      0.      0.-0.82966-0.18480      0.
PBAR        2007     200 0.08058 2.76e-3 0.02086 5.92e-3 0.84955
              0. 0.81167 0.17795      0.      0.-0.81166-0.17794      0.
PBAR        2008     200 0.07911 2.51e-3 0.01963 5.37e-3 0.83095
              0. 0.79367 0.17109      0.      0.-0.79367-0.17109      0.
PBAR        2009     200 0.07765 2.27e-3 0.01846 4.86e-3 0.81238
              0. 0.77567 0.16423      0.      0.-0.77567-0.16423      0.
PBAR        2010     200 0.07618 2.05e-3 0.01735 4.38e-3 0.79337
              0. 0.75768 0.15738      0.      0.-0.75767-0.15737      0.
PBAR        2011     200 0.08795 2.16e-3 0.01905 5.02e-3 0.72993
              0. 0.73994 0.15123      0.      0.-0.73993-0.15122      0.
PBAR        2012     200 0.11130 2.54e-3 0.02300 6.55e-3 0.71093
              0. 0.72076 0.14579      0.      0.-0.72076-0.14578      0.
PBAR        2013     200 0.12012 2.56e-3 0.02359 6.86e-3 0.69212
              0. 0.70159 0.14034      0.      0.-0.70159-0.14034      0.
PBAR        2014     200 0.11566 2.28e-3 0.02127 6.18e-3 0.67331
              0. 0.68242 0.13490      0.      0.-0.68241-0.13490      0.
PBAR        2015     200 0.11170 2.04e-3 0.01925 5.55e-3 0.65449
              0. 0.66325 0.12946      0.      0.-0.66324-0.12946      0.
PBAR        2016     200 0.10862 1.82e-3 0.01765 4.97e-3 0.63567
              0. 0.64407 0.12402      0.      0.-0.64407-0.12401      0.
PBAR        2017     200 0.10554 1.62e-3 0.01614 4.42e-3 0.61686
              0. 0.62490 0.11858      0.      0.-0.62490-0.11857      0.
PBAR        2018     200 0.10246 1.44e-3 0.01474 3.92e-3 0.59804
              0. 0.60573 0.11313      0.      0.-0.60572-0.11313      0.
PBAR        2019     200 0.09938 1.26e-3 0.01342 3.46e-3 0.57922
              0. 0.58656 0.10769      0.      0.-0.58655-0.10769      0.
$ ... 30 like lines cut
$ PBAR        2035     200 0.05125 2.65e-3 0.01827 3.87e-3 0.71048
$               0. 0.91064 0.21566      0.      0.-0.91064-0.21566      0.
$ PBAR        2036     200 0.05126 2.65e-3 0.01827 3.87e-3 0.71048
$               0. 0.91064 0.21566      0.      0.-0.91064-0.21566      0.
$ PBAR        2037     200 0.07155 3.51e-3 0.02406 6.36e-3 0.94262
$               0. 0.90165 0.21223      0.      0.-0.90164-0.21223      0.
$ PBAR        2038     200 0.09109 4.18e-3 0.02909 8.48e-3 0.92392
$               0. 0.88365 0.20538      0.      0.-0.88365-0.20537      0.
$ PBAR        2039     200 0.08959 3.83e-3 0.02760 7.79e-3 0.90533
$               0. 0.86565 0.19852      0.      0.-0.86565-0.19851      0.
$ PBAR        2040     200 0.08591 3.42e-3 0.02489 7.13e-3 0.88674
$               0. 0.84766 0.19166      0.      0.-0.84765-0.19166      0.
$ PBAR        2041     200 0.08215 3.04e-3 0.02221 6.50e-3 0.86814
$               0. 0.82966 0.18480      0.      0.-0.82966-0.18480      0.
$ PBAR        2042     200 0.08058 2.76e-3 0.02086 5.92e-3 0.84955
$               0. 0.81167 0.17795      0.      0.-0.81166-0.17794      0.
$ PBAR        2043     200 0.07911 2.51e-3 0.01963 5.37e-3 0.83095
$               0. 0.79367 0.17109      0.      0.-0.79367-0.17109      0.
$ PBAR        2044     200 0.07765 2.27e-3 0.01846 4.86e-3 0.81238
$               0. 0.77567 0.16423      0.      0.-0.77567-0.16423      0.
$ PBAR        2045     200 0.07618 2.05e-3 0.01735 4.38e-3 0.79337
$               0. 0.75768 0.15738      0.      0.-0.75767-0.15737      0.
$ PBAR        2046     200 0.08795 2.16e-3 0.01905 5.02e-3 0.72993
$               0. 0.73994 0.15123      0.      0.-0.73993-0.15122      0.
$ PBAR        2047     200 0.11130 2.54e-3 0.02300 6.55e-3 0.71093
$               0. 0.72076 0.14579      0.      0.-0.72076-0.14578      0.
$ PBAR        2048     200 0.12012 2.56e-3 0.02359 6.86e-3 0.69212
$               0. 0.70159 0.14034      0.      0.-0.70159-0.14034      0.
$ PBAR        2049     200 0.11566 2.28e-3 0.02127 6.18e-3 0.67331
$               0. 0.68242 0.13490      0.      0.-0.68241-0.13490      0.
$ PBAR        2050     200 0.11170 2.04e-3 0.01925 5.55e-3 0.65449
$               0. 0.66325 0.12946      0.      0.-0.66324-0.12946      0.
$ PBAR        2051     200 0.10862 1.82e-3 0.01765 4.97e-3 0.63567
$               0. 0.64407 0.12402      0.      0.-0.64407-0.12401      0.
$ PBAR        2052     200 0.10554 1.62e-3 0.01614 4.42e-3 0.61686
$               0. 0.62490 0.11858      0.      0.-0.62490-0.11857      0.
$ PBAR        2053     200 0.10246 1.44e-3 0.01474 3.92e-3 0.59804
$               0. 0.60573 0.11313      0.      0.-0.60572-0.11313      0.
$ PBAR        2054     200 0.09938 1.26e-3 0.01342 3.46e-3 0.57922
$               0. 0.58656 0.10769      0.      0.-0.58655-0.10769      0.
$ ... 30 like lines cut
$
$-------2-------3-------4-------5-------6-------7-------8-------9-------10
$ Bar elements
$-------2-------3-------4-------5-------6-------7-------8-------9-------10
CBAR        2000    2000    2000    2001      0.      0.      1.     GGG
CBAR        2001    2001    2001    2002      0.      0.      1.     GGG
CBAR        2002    2002    2002    2003 0.05064-0.03269 0.99818     GGG
CBAR        2003    2003    2003    2004 0.05064-0.03269 0.99818     GGG
CBAR        2004    2004    2004    2005 0.05064-0.03269 0.99818     GGG
CBAR        2005    2005    2005    2006 0.05064-0.03269 0.99818     GGG
CBAR        2006    2006    2006    2007 0.05064-0.03269 0.99818     GGG
CBAR        2007    2007    2007    2008 0.05064-0.03269 0.99818     GGG
CBAR        2008    2008    2008    2009 0.05064-0.03269 0.99818     GGG
CBAR        2009    2009    2009    2010 0.05064-0.03269 0.99818     GGG
CBAR        2010    2010    2010    2011 0.05064-0.03269 0.99818     GGG
CBAR        2011    2011    2011    2012 0.05064-0.03269 0.99818     GGG
CBAR        2012    2012    2012    2013 0.05064-0.03269 0.99818     GGG
CBAR        2013    2013    2013    2014 0.05064-0.03269 0.99818     GGG
CBAR        2014    2014    2014    2015 0.05064-0.03269 0.99818     GGG
CBAR        2015    2015    2015    2016 0.05064-0.03269 0.99818     GGG
CBAR        2016    2016    2016    2017 0.05064-0.03269 0.99818     GGG
CBAR        2017    2017    2017    2018 0.05064-0.03269 0.99818     GGG
CBAR        2018    2018    2018    2019 0.05064-0.03269 0.99818     GGG
CBAR        2019    2019    2019    2020 0.05064-0.03269 0.99818     GGG
$ ... 15 like lines cut
$ CBAR        2035    2035    2000    2036      0.      0.      1.     GGG
$ CBAR        2036    2036    2036    2037      0.      0.      1.     GGG
$ CBAR        2037    2037    2037    2038 0.05064 0.03270 0.99818     GGG
$ CBAR        2038    2038    2038    2039 0.05064 0.03270 0.99818     GGG
$ CBAR        2039    2039    2039    2040 0.05064 0.03270 0.99818     GGG
$ CBAR        2040    2040    2040    2041 0.05064 0.03270 0.99818     GGG
$ CBAR        2041    2041    2041    2042 0.05064 0.03270 0.99818     GGG
$ CBAR        2042    2042    2042    2043 0.05064 0.03270 0.99818     GGG
$ CBAR        2043    2043    2043    2044 0.05064 0.03270 0.99818     GGG
$ CBAR        2044    2044    2044    2045 0.05064 0.03270 0.99818     GGG
$ CBAR        2045    2045    2045    2046 0.05064 0.03270 0.99818     GGG
$ CBAR        2046    2046    2046    2047 0.05064 0.03270 0.99818     GGG
$ CBAR        2047    2047    2047    2048 0.05064 0.03270 0.99818     GGG
$ CBAR        2048    2048    2048    2049 0.05064 0.03270 0.99818     GGG
$ CBAR        2049    2049    2049    2050 0.05064 0.03270 0.99818     GGG
$ CBAR        2050    2050    2050    2051 0.05064 0.03270 0.99818     GGG
$ CBAR        2051    2051    2051    2052 0.05064 0.03270 0.99818     GGG
$ CBAR        2052    2052    2052    2053 0.05064 0.03270 0.99818     GGG
$ CBAR        2053    2053    2053    2054 0.05064 0.03270 0.99818     GGG
$ CBAR        2054    2054    2054    2055 0.05064 0.03270 0.99818     GGG
$ ... 15 like lines cut


$$-------2-------3-------4-------5-------6-------7-------8-------9-------10
$ Box cross nodes
$-------2-------3-------4-------5-------6-------7-------8-------9-------10
RBE2        2000    2000  123456   20000   20001   20002   20003
RBE2        2001    2001  123456   20004   20005   20006   20007
RBE2        2002    2002  123456   20008   20009   20010   20011
RBE2        2003    2003  123456   20012   20013   20014   20015
RBE2        2004    2004  123456   20016   20017   20018   20019
RBE2        2005    2005  123456   20020   20021   20022   20023
RBE2        2006    2006  123456   20024   20025   20026   20027
RBE2        2007    2007  123456   20028   20029   20030   20031
RBE2        2008    2008  123456   20032   20033   20034   20035
RBE2        2009    2009  123456   20036   20037   20038   20039
RBE2        2010    2010  123456   20040   20041   20042   20043
RBE2        2011    2011  123456   20044   20045   20046   20047
RBE2        2012    2012  123456   20048   20049   20050   20051
RBE2        2013    2013  123456   20052   20053   20054   20055
RBE2        2014    2014  123456   20056   20057   20058   20059
RBE2        2015    2015  123456   20060   20061   20062   20063
RBE2        2016    2016  123456   20064   20065   20066   20067
RBE2        2017    2017  123456   20068   20069   20070   20071
RBE2        2018    2018  123456   20072   20073   20074   20075
RBE2        2019    2019  123456   20076   20077   20078   20079
$ ... 16 like lines cut
$ RBE2        2036    2036  123456   20144   20145   20146   20147
$ RBE2        2037    2037  123456   20148   20149   20150   20151
$ RBE2        2038    2038  123456   20152   20153   20154   20155
$ RBE2        2039    2039  123456   20156   20157   20158   20159
$ RBE2        2040    2040  123456   20160   20161   20162   20163
$ RBE2        2041    2041  123456   20164   20165   20166   20167
$ RBE2        2042    2042  123456   20168   20169   20170   20171
$ RBE2        2043    2043  123456   20172   20173   20174   20175
$ RBE2        2044    2044  123456   20176   20177   20178   20179
$ RBE2        2045    2045  123456   20180   20181   20182   20183
$ RBE2        2046    2046  123456   20184   20185   20186   20187
$ RBE2        2047    2047  123456   20188   20189   20190   20191
$ RBE2        2048    2048  123456   20192   20193   20194   20195
$ RBE2        2049    2049  123456   20196   20197   20198   20199
$ RBE2        2050    2050  123456   20200   20201   20202   20203
$ RBE2        2051    2051  123456   20204   20205   20206   20207
$ RBE2        2052    2052  123456   20208   20209   20210   20211
$ RBE2        2053    2053  123456   20212   20213   20214   20215
$ RBE2        2054    2054  123456   20216   20217   20218   20219
$ RBE2        2055    2055  123456   20220   20221   20222   20223
$ ... 15 like lines cut
$ $
$ $-------2-------3-------4-------5-------6-------7-------8-------9-------10
$ $ Spline definition                                                       
$ $-------2-------3-------4-------5-------6-------7-------8-------9-------10
$ SPLINE1     2000    1001    1001    1018     200             TPS        
$ SPLINE1     3000    3001    3001    3025     200             TPS        
$ SPLINE1     4000    4001    4001    4020     200             TPS        
$ SPLINE1     5000    7001    7001    7035     200             TPS        
$ SPLINE1     6000    8001    8001    8028     200             TPS        
$ SPLINE1     7000   11001   11001   11035     200             TPS        
$ SPLINE1     8000   12001   12001   12028     200             TPS        
$ SPLINE1     9000    2001    2001    2018     200             TPS        
$ SPLINE1    10000    5001    5001    5025     200             TPS        
$ SPLINE1    11000    6001    6001    6020     200             TPS        
$ SPLINE1    12000    9001    9001    9035     200             TPS        
$ SPLINE1    13000   10001   10001   10028     200             TPS        
$ SPLINE1    14000   13001   13001   13035     200             TPS        
$ SPLINE1    15000   14001   14001   14028     200             TPS   
$ $
$ $-------2-------3-------4-------5-------6-------7-------8-------9-------10
$ $ Interpolation set for SPLINE                              
$ $-------2-------3-------4-------5-------6-------7-------8-------9-------10
$ SET1         200    2001    2002    2003    2004    2005    2006    2007
$             2008    2009    2010    2011    2012    2013    2014    2015
$             2016    2017    2018    2019    2020    2021    2022    2023
$             2024    2025    2026    2027    2028    2029    2030    2031
$             2032    2033    2034    2035    2000    2036    2037    2038
$             2039    2040    2041    2042    2043    2044    2045    2046
$             2047    2048    2049    2050    2051    2052    2053    2054
$             2055    2056    2057    2058    2059    2060    2061    2062
$             2063    2064    2065    2066    2067    2068    2069    2070
$            20000   20002   20004   20006   20008   20010   20012   20014
$            20016   20018   20020   20022   20024   20026   20028   20030
$            20032   20034   20036   20038   20040   20042   20044   20046
$            20048   20050   20052   20054   20056   20058   20060   20062
$            20064   20066   20068   20070   20072   20074   20076   20078
$            20080   20082   20084   20086   20088   20090   20092   20094
$            20096   20098   20100   20102   20104   20106   20108   20110
$            20112   20114   20116   20118   20120   20122   20124   20126
$            20128   20130   20132   20134   20136   20138   20140   20142
$            20144   20146   20148   20150   20152   20154   20156   20158
$            20160   20162   20164   20166   20168   20170   20172   20174
$            20176   20178   20180   20182   20184   20186   20188   20190
$ ... 6 like lines cut
	   